examples/IEEE-118-8500/cosim_118_8500/Voltage_8500.csv
# Voltage_8500.csv run at 2000-09-01 12:00:00 PDT on 9883 powerflow objects (not all are nodes)
node_name,voltA_real,voltA_imag,voltB_real,voltB_imag,voltC_real,voltC_imag
CapBank0,5095.379875,-4512.008603,-6665.377973,-1953.963749,967.475612,7031.980804
CapBank1,5584.400231,-3981.320561,-6330.730658,-2830.201937,590.837641,7079.650549
CapBank2,6052.564615,-3839.120501,-6359.802801,-3326.353608,282.499436,7179.399865
CapBank3,5445.006149,-4293.573505,-6445.202518,-2445.393193,968.777435,6953.795560
SX2673305B,-108.991178,-42.939596,-108.991178,-42.939596,0.000000,0.000000
SX3048196B,-108.853570,-42.896644,-108.853570,-42.896644,0.000000,0.000000
SX2991911C,15.675971,114.971222,15.675971,114.971222,0.000000,0.000000
SX2973158C,15.520872,115.318143,15.520872,115.318143,0.000000,0.000000
SX3048208A,92.910114,-71.895488,92.910114,-71.895488,0.000000,0.000000
SX3029502A,85.394292,-66.138376,85.394292,-66.138376,0.000000,0.000000
SX3104125B,-101.051541,-40.161596,-101.051541,-40.161596,0.000000,0.000000
SX3160107A,86.448411,-66.696471,86.448411,-66.696471,0.000000,0.000000
SX2785516B,-108.754506,-42.824238,-108.754506,-42.824238,0.000000,0.000000
SX3141400A,87.352494,-67.082265,87.352494,-67.082265,0.000000,0.000000
SX2897775C,15.737043,114.144408,15.737043,114.144408,0.000000,0.000000
SX3010565C,15.840566,114.537168,15.840566,114.537168,0.000000,0.000000
SX2916609C,15.793971,114.512484,15.793971,114.512484,0.000000,0.000000
SX2879073C,15.813337,114.334827,15.813337,114.334827,0.000000,0.000000
SX3104126C,15.839151,114.548884,15.839151,114.548884,0.000000,0.000000
SX3029503C,15.797501,114.475449,15.797501,114.475449,0.000000,0.000000
SX2691950C,15.724188,114.254526,15.724188,114.254526,0.000000,0.000000
SX2691951C,15.702605,114.444731,15.702605,114.444731,0.000000,0.000000
SX2879076C,15.817204,114.742316,15.817204,114.742316,0.000000,0.000000
SX2841630C,15.702205,114.452384,15.702205,114.452384,0.000000,0.000000
SX2841629C,15.614941,114.131348,15.614941,114.131348,0.000000,0.000000
SX2785523C,15.776556,114.667809,15.776556,114.667809,0.000000,0.000000
SX3216347C,15.773335,114.694950,15.773335,114.694950,0.000000,0.000000
SX3141388C,15.815310,114.767067,15.815310,114.767067,0.000000,0.000000
SX3066801C,15.828405,114.656861,15.828405,114.656861,0.000000,0.000000
SX2879055C,15.829884,114.644627,15.829884,114.644627,0.000000,0.000000
SX2973144C,15.727237,114.239257,15.727237,114.239257,0.000000,0.000000
SX2785518C,15.800546,114.465945,15.800546,114.465945,0.000000,0.000000
SX2766717C,15.836193,114.592409,15.836193,114.592409,0.000000,0.000000
SX2673309C,15.731612,114.202423,15.731612,114.202423,0.000000,0.000000
SX3104113A,90.780463,-71.513996,90.780463,-71.513996,0.000000,0.000000
SX3104121A,90.781492,-71.514261,90.781492,-71.514261,0.000000,0.000000
SX2673310A,90.786412,-71.515528,90.786412,-71.515528,0.000000,0.000000
SX2916627A,90.793699,-71.517405,90.793699,-71.517405,0.000000,0.000000
SX2804283A,90.810521,-71.521737,90.810521,-71.521737,0.000000,0.000000
SX3104122A,90.828029,-71.529390,90.828029,-71.529390,0.000000,0.000000
SX2785519A,90.835794,-71.532783,90.835794,-71.532783,0.000000,0.000000
SX2748129A,90.640890,-71.329918,90.640890,-71.329918,0.000000,0.000000
SX2973151A,91.283810,-71.531162,91.283810,-71.531162,0.000000,0.000000
SX2748146A,91.308579,-71.542007,91.308579,-71.542007,0.000000,0.000000
SX2991913A,91.388690,-71.577040,91.388690,-71.577040,0.000000,0.000000
SX3235253A,90.980252,-71.596998,90.980252,-71.596998,0.000000,0.000000
SX2991907A,91.012028,-71.610408,91.012028,-71.610408,0.000000,0.000000
SX2879064A,91.065927,-71.633927,91.065927,-71.633927,0.000000,0.000000
SX3197637C,15.943686,114.830458,15.943686,114.830458,0.000000,0.000000
SX2860487C,15.844022,114.733893,15.844022,114.733893,0.000000,0.000000
SX2841638C,16.815651,114.486045,16.815651,114.486045,0.000000,0.000000
SX3235256A,89.869912,-71.368957,89.869912,-71.368957,0.000000,0.000000
SX3197630A,89.675286,-71.417591,89.675286,-71.417591,0.000000,0.000000
SX3104120B,-107.196815,-40.421640,-107.196815,-40.421640,0.000000,0.000000
SX2804251A,90.250884,-71.719122,90.250884,-71.719122,0.000000,0.000000
SX3254210C,16.428736,114.540456,16.428736,114.540456,0.000000,0.000000
SX3048206A,90.546724,-71.552657,90.546724,-71.552657,0.000000,0.000000
SX2710510C,16.353870,114.689151,16.353870,114.689151,0.000000,0.000000
SX3197628C,16.247816,114.299642,16.247816,114.299642,0.000000,0.000000
SX2766718C,16.024806,114.012792,16.024806,114.012792,0.000000,0.000000
SX3010556A,91.335391,-71.593235,91.335391,-71.593235,0.000000,0.000000
SX2710520A,89.652937,-71.332379,89.652937,-71.332379,0.000000,0.000000
SX2710521A,89.231797,-71.345804,89.231797,-71.345804,0.000000,0.000000
SX3085396A,89.228261,-71.344234,89.228261,-71.344234,0.000000,0.000000
SX3122813A,89.636459,-71.325133,89.636459,-71.325133,0.000000,0.000000
SX3254219C,16.832387,114.092525,16.832387,114.092525,0.000000,0.000000
SX3254220C,16.833019,114.090224,16.833019,114.090224,0.000000,0.000000
SX3104134C,16.840149,114.115430,16.840149,114.115430,0.000000,0.000000
SX2860490A,88.993860,-71.252789,88.993860,-71.252789,0.000000,0.000000
SX3254218A,89.087255,-71.321413,89.087255,-71.321413,0.000000,0.000000
SX3066818B,-106.301717,-39.419880,-106.301717,-39.419880,0.000000,0.000000
SX2785528B,-106.321445,-39.315010,-106.321445,-39.315010,0.000000,0.000000
SX2748130B,-106.061550,-39.252457,-106.061550,-39.252457,0.000000,0.000000
SX3254212B,-105.737524,-39.175214,-105.737524,-39.175214,0.000000,0.000000
SX2785520B,-106.197526,-39.169636,-106.197526,-39.169636,0.000000,0.000000
SX2729411A,88.882202,-71.239178,88.882202,-71.239178,0.000000,0.000000
SX2897781A,88.882340,-71.239228,88.882340,-71.239228,0.000000,0.000000
SX3197644A,89.053175,-70.967590,89.053175,-70.967590,0.000000,0.000000
SX3010566C,15.841010,114.100372,15.841010,114.100372,0.000000,0.000000
SX3236011B,-104.060281,-43.192570,-104.060281,-43.192570,0.000000,0.000000
SX3198358B,-103.476156,-43.026957,-103.476156,-43.026957,0.000000,0.000000
SX3104859B,-104.043402,-43.179732,-104.043402,-43.179732,0.000000,0.000000
SX2936275B,-105.154533,-50.626564,-105.154533,-50.626564,0.000000,0.000000
SX3179674B,-104.782463,-50.496252,-104.782463,-50.496252,0.000000,0.000000
SX2748840B,-104.999780,-50.548649,-104.999780,-50.548649,0.000000,0.000000
SX3142099B,-104.763783,-50.474390,-104.763783,-50.474390,0.000000,0.000000
SX3011298C,13.695443,115.224728,13.695443,115.224728,0.000000,0.000000
SX2711234B,-103.818898,-43.132574,-103.818898,-43.132574,0.000000,0.000000
SX3198355B,-104.197787,-43.236326,-104.197787,-43.236326,0.000000,0.000000
SX2879773A,89.788240,-67.401897,89.788240,-67.401897,0.000000,0.000000
SX2786274C,13.348674,115.049368,13.348674,115.049368,0.000000,0.000000
SX3179682C,13.412048,115.310487,13.412048,115.310487,0.000000,0.000000
SX2936270A,98.418771,-64.215505,98.418771,-64.215505,0.000000,0.000000
SX3086078A,98.410436,-64.212718,98.410436,-64.212718,0.000000,0.000000
SX3217056A,97.954696,-63.834169,97.954696,-63.834169,0.000000,0.000000
SX3217057A,98.659066,-64.431626,98.659066,-64.431626,0.000000,0.000000
SX2936268C,6.505081,118.013359,6.505081,118.013359,0.000000,0.000000
SX2823592A,99.856027,-64.153628,99.856027,-64.153628,0.000000,0.000000
SX3160863C,5.888664,118.037840,5.888664,118.037840,0.000000,0.000000
SX2730108C,5.962966,117.674873,5.962966,117.674873,0.000000,0.000000
SX2786204C,5.878961,116.992935,5.878961,116.992935,0.000000,0.000000
SX2936216C,6.033200,117.576693,6.033200,117.576693,0.000000,0.000000
SX3029498C,14.356496,113.499779,14.356496,113.499779,0.000000,0.000000
SX2991912A,87.511886,-66.795295,87.511886,-66.795295,0.000000,0.000000
SX3104128A,87.495899,-66.788539,87.495899,-66.788539,0.000000,0.000000
SX2673315A,87.312369,-67.067549,87.312369,-67.067549,0.000000,0.000000
SX2766721A,87.037244,-66.802152,87.037244,-66.802152,0.000000,0.000000
SX2991906A,87.290588,-67.058402,87.290588,-67.058402,0.000000,0.000000
SX2879054A,87.027127,-66.797971,87.027127,-66.797971,0.000000,0.000000
SX3254211B,-105.721564,-39.015599,-105.721564,-39.015599,0.000000,0.000000
SX2729407B,-105.912909,-39.029570,-105.912909,-39.029570,0.000000,0.000000
SX2691942B,-105.814479,-38.960815,-105.814479,-38.960815,0.000000,0.000000
SX3197629B,-105.778080,-38.934457,-105.778080,-38.934457,0.000000,0.000000
SX2879065B,-105.908043,-38.967120,-105.908043,-38.967120,0.000000,0.000000
SX0247160B,-105.655351,-38.815531,-105.655351,-38.815531,0.000000,0.000000
SX0247162B,-105.645610,-38.806090,-105.645610,-38.806090,0.000000,0.000000
SX2766732B,-105.754220,-38.817254,-105.754220,-38.817254,0.000000,0.000000
SX2897784B,-105.038433,-38.645877,-105.038433,-38.645877,0.000000,0.000000
SX0247171B,-105.619926,-38.781193,-105.619926,-38.781193,0.000000,0.000000
SX2936279C,13.747037,114.439490,13.747037,114.439490,0.000000,0.000000
SX3179678B,-103.289906,-42.348318,-103.289906,-42.348318,0.000000,0.000000
SX3179650B,-104.163576,-37.809884,-104.163576,-37.809884,0.000000,0.000000
SX2730107C,14.404676,116.014701,14.404676,116.014701,0.000000,0.000000
SX3048888C,6.519855,115.360607,6.519855,115.360607,0.000000,0.000000
SX3064514C,6.516529,115.377455,6.516529,115.377455,0.000000,0.000000
SX2861158C,6.450535,115.204364,6.450535,115.204364,0.000000,0.000000
SX2952007C,6.449288,115.210541,6.449288,115.210541,0.000000,0.000000
SX3254873C,6.430115,115.670609,6.430115,115.670609,0.000000,0.000000
SX2745811C,6.389814,115.376132,6.389814,115.376132,0.000000,0.000000
SX3142050C,6.417099,115.736545,6.417099,115.736545,0.000000,0.000000
SX2861157C,6.216323,116.190753,6.216323,116.190753,0.000000,0.000000
SX3086079B,-105.183801,-50.651515,-105.183801,-50.651515,0.000000,0.000000
SX2936276B,-105.182757,-50.650626,-105.182757,-50.650626,0.000000,0.000000
SX2861223B,-104.795634,-50.509234,-104.795634,-50.509234,0.000000,0.000000
SX3086075B,-105.001097,-50.550195,-105.001097,-50.550195,0.000000,0.000000
SX2730187A,92.913148,-65.534976,92.913148,-65.534976,0.000000,0.000000
SX3104856A,93.545606,-65.694293,93.545606,-65.694293,0.000000,0.000000
SX2861222A,89.999244,-66.532458,89.999244,-66.532458,0.000000,0.000000
SX2917330A,90.222199,-66.743071,90.222199,-66.743071,0.000000,0.000000
SX2879794A,90.017990,-66.540013,90.017990,-66.540013,0.000000,0.000000
SX2936271A,90.697917,-66.738736,90.697917,-66.738736,0.000000,0.000000
SX2955074A,90.046645,-66.624283,90.046645,-66.624283,0.000000,0.000000
SX3030199C,12.270830,115.594636,12.270830,115.594636,0.000000,0.000000
SX2730163C,12.380701,115.541416,12.380701,115.541416,0.000000,0.000000
SX2992624A,90.580221,-66.933183,90.580221,-66.933183,0.000000,0.000000
SX2692654A,90.553816,-66.956857,90.553816,-66.956857,0.000000,0.000000
SX2842379A,89.908909,-66.777976,89.908909,-66.777976,0.000000,0.000000
SX2805031C,12.510880,115.114205,12.510880,115.114205,0.000000,0.000000
SX3068944B,-103.637564,-43.664977,-103.637564,-43.664977,0.000000,0.000000
SX2767407B,-104.349214,-43.871730,-104.349214,-43.871730,0.000000,0.000000
SX2879767B,-104.350292,-43.872559,-104.350292,-43.872559,0.000000,0.000000
SX2711224B,-104.312775,-43.843983,-104.312775,-43.843983,0.000000,0.000000
SX3142098B,-103.920588,-43.727471,-103.920588,-43.727471,0.000000,0.000000
SX2748839B,-104.299360,-43.833703,-104.299360,-43.833703,0.000000,0.000000
SX2917310B,-104.171062,-43.796051,-104.171062,-43.796051,0.000000,0.000000
SX2861218C,12.817350,115.329652,12.817350,115.329652,0.000000,0.000000
SX2955081A,90.338043,-67.273701,90.338043,-67.273701,0.000000,0.000000
SX3160878C,13.472482,114.864439,13.472482,114.864439,0.000000,0.000000
SX2917336C,13.473289,114.858706,13.473289,114.858706,0.000000,0.000000
SX2674047C,11.801241,116.117479,11.801241,116.117479,0.000000,0.000000
SX3160865A,90.503911,-66.590059,90.503911,-66.590059,0.000000,0.000000
SX2767408C,11.569515,116.219140,11.569515,116.219140,0.000000,0.000000
SX3104853C,11.509626,115.966133,11.509626,115.966133,0.000000,0.000000
SX3254915B,-104.645677,-44.406359,-104.645677,-44.406359,0.000000,0.000000
SX3048963B,-104.396716,-44.338273,-104.396716,-44.338273,0.000000,0.000000
SX2711226B,-104.184630,-44.351374,-104.184630,-44.351374,0.000000,0.000000
SX3217052C,11.511867,115.951894,11.511867,115.951894,0.000000,0.000000
SX3217053C,11.600501,116.342560,11.600501,116.342560,0.000000,0.000000
SX3086074C,11.570652,116.211979,11.570652,116.211979,0.000000,0.000000
SX3067507C,11.347164,115.687377,11.347164,115.687377,0.000000,0.000000
SX2955078A,90.696346,-66.379299,90.696346,-66.379299,0.000000,0.000000
SX2955077C,11.174982,116.154415,11.174982,116.154415,0.000000,0.000000
SX3160872C,11.206226,115.796075,11.206226,115.796075,0.000000,0.000000
SX3198348A,89.495595,-66.023387,89.495595,-66.023387,0.000000,0.000000
SX2711225C,11.457326,116.340459,11.457326,116.340459,0.000000,0.000000
SX3030200C,11.457785,116.337586,11.457785,116.337586,0.000000,0.000000
SX3048962A,89.323166,-66.262463,89.323166,-66.262463,0.000000,0.000000
SX3160861C,11.796716,116.384841,11.796716,116.384841,0.000000,0.000000
SX3104850C,11.758750,115.955564,11.758750,115.955564,0.000000,0.000000
SX3251799A,87.420046,-66.390391,87.420046,-66.390391,0.000000,0.000000
SX2936211C,12.446918,116.081114,12.446918,116.081114,0.000000,0.000000
SX2842329C,12.447248,116.078824,12.447248,116.078824,0.000000,0.000000
SX3104796C,12.463638,115.805345,12.463638,115.805345,0.000000,0.000000
SX3236004C,12.447014,116.080449,12.447014,116.080449,0.000000,0.000000
SX3160896C,12.524320,116.062316,12.524320,116.062316,0.000000,0.000000
SX3123452C,12.581315,115.790168,12.581315,115.790168,0.000000,0.000000
SX3254869B,-104.256573,-40.122943,-104.256573,-40.122943,0.000000,0.000000
SX3030126C,12.752427,115.744097,12.752427,115.744097,0.000000,0.000000
SX2767341C,12.645387,115.440245,12.645387,115.440245,0.000000,0.000000
SX3254870C,12.753287,115.738229,12.753287,115.738229,0.000000,0.000000
SX3048887B,-103.655911,-39.672477,-103.655911,-39.672477,0.000000,0.000000
SX2955005B,-104.227759,-39.806973,-104.227759,-39.806973,0.000000,0.000000
SX3216988B,-103.963926,-39.740212,-103.963926,-39.740212,0.000000,0.000000
SX3179607B,-103.964421,-39.740565,-103.964421,-39.740565,0.000000,0.000000
SX2898457A,84.963134,-67.045496,84.963134,-67.045496,0.000000,0.000000
SX2767340A,83.805201,-65.872005,83.805201,-65.872005,0.000000,0.000000
SX2767340B,-102.640620,-38.891274,-102.640620,-38.891274,0.000000,0.000000
SX2767340C,12.622203,114.405366,12.622203,114.405366,0.000000,0.000000
SX3067478A,84.024068,-66.580597,84.024068,-66.580597,0.000000,0.000000
SX2730149C,13.203173,115.954384,13.203173,115.954384,0.000000,0.000000
SX2989566B,-104.029030,-38.410757,-104.029030,-38.410757,0.000000,0.000000
SX2973791A,82.846912,-66.422576,82.846912,-66.422576,0.000000,0.000000
SX3029055B,-103.671178,-39.976843,-103.671178,-39.976843,0.000000,0.000000
SX3067506C,9.159773,117.209140,9.159773,117.209140,0.000000,0.000000
SX2898515C,9.084356,116.794134,9.084356,116.794134,0.000000,0.000000
SX3198347C,9.138712,117.046281,9.138712,117.046281,0.000000,0.000000
SX3048946C,9.138549,117.047187,9.138549,117.047187,0.000000,0.000000
SX3048966C,9.133990,117.072427,9.133990,117.072427,0.000000,0.000000
SX2992656A,92.921288,-65.538082,92.921288,-65.538082,0.000000,0.000000
SX2973833B,-104.891109,-47.798191,-104.891109,-47.798191,0.000000,0.000000
SX2786266A,93.273672,-65.784906,93.273672,-65.784906,0.000000,0.000000
SX2917333A,92.726823,-65.862042,92.726823,-65.862042,0.000000,0.000000
SX2842383A,92.781646,-65.926828,92.781646,-65.926828,0.000000,0.000000
SX2842384C,10.378106,116.860500,10.378106,116.860500,0.000000,0.000000
SX3160871C,10.563937,116.387759,10.563937,116.387759,0.000000,0.000000
SX3030203C,10.565089,116.380824,10.565089,116.380824,0.000000,0.000000
SX3179673C,10.621945,116.638149,10.621945,116.638149,0.000000,0.000000
SX3048965B,-104.102228,-45.059141,-104.102228,-45.059141,0.000000,0.000000
SX2692660A,90.251470,-65.961812,90.251470,-65.961812,0.000000,0.000000
SX2805034A,91.989284,-66.390480,91.989284,-66.390480,0.000000,0.000000
SX2898522A,93.126410,-65.733345,93.126410,-65.733345,0.000000,0.000000
SX2692661A,93.131245,-65.735147,93.131245,-65.735147,0.000000,0.000000
SX3067448C,6.207648,116.214007,6.207648,116.214007,0.000000,0.000000
SX2935552C,13.520494,114.570445,13.520494,114.570445,0.000000,0.000000
SX2822864C,13.602643,113.969425,13.602643,113.969425,0.000000,0.000000
SX2822865C,13.635063,114.105326,13.635063,114.105326,0.000000,0.000000
SX2916605C,13.600862,113.982267,13.600862,113.982267,0.000000,0.000000
SX3085394C,13.601229,113.979620,13.601229,113.979620,0.000000,0.000000
SX2804250C,13.550568,113.608135,13.550568,113.608135,0.000000,0.000000
SX3048205C,13.585776,113.348163,13.585776,113.348163,0.000000,0.000000
SX3048228C,13.618371,113.105713,13.618371,113.105713,0.000000,0.000000
SX2935550C,13.637769,112.957521,13.637769,112.957521,0.000000,0.000000
SX2710509C,13.704528,113.215362,13.704528,113.215362,0.000000,0.000000
SX2822862C,13.704947,113.212065,13.704947,113.212065,0.000000,0.000000
SX3066806C,13.705372,113.210672,13.705372,113.210672,0.000000,0.000000
SX2916606C,13.602389,113.971257,13.602389,113.971257,0.000000,0.000000
SX3235243C,19.054015,111.940967,19.054015,111.940967,0.000000,0.000000
SX2786273B,-108.476150,-42.738265,-108.476150,-42.738265,0.000000,0.000000
SX2805036B,-108.836111,-42.826038,-108.836111,-42.826038,0.000000,0.000000
SX3178997C,16.752784,114.070356,16.752784,114.070356,0.000000,0.000000
SX3122849B,-104.498312,-38.102446,-104.498312,-38.102446,0.000000,0.000000
SX2766750C,16.608309,113.458312,16.608309,113.458312,0.000000,0.000000
SX2763153A,87.753884,-70.189242,87.753884,-70.189242,0.000000,0.000000
SX3104157C,16.712289,113.775928,16.712289,113.775928,0.000000,0.000000
SX_293471A,87.962085,-70.395519,87.962085,-70.395519,0.000000,0.000000
SX_293471B,-104.847645,-38.455362,-104.847645,-38.455362,0.000000,0.000000
SX_293471C,16.726505,113.774382,16.726505,113.774382,0.000000,0.000000
SX2748158A,88.596745,-70.593423,88.596745,-70.593423,0.000000,0.000000
SX3104133A,88.140454,-70.592751,88.140454,-70.592751,0.000000,0.000000
SX2673346C,16.738101,113.839924,16.738101,113.839924,0.000000,0.000000
SX3254238B,-104.969844,-38.528636,-104.969844,-38.528636,0.000000,0.000000
SX3048230C,16.734273,113.706214,16.734273,113.706214,0.000000,0.000000
SX2841637C,16.738247,113.669899,16.738247,113.669899,0.000000,0.000000
SX2897780B,-105.519745,-38.860683,-105.519745,-38.860683,0.000000,0.000000
SX3235255B,-105.978267,-38.944289,-105.978267,-38.944289,0.000000,0.000000
SX3216370A,88.523927,-70.945942,88.523927,-70.945942,0.000000,0.000000
SX3216370B,-105.774106,-38.870473,-105.774106,-38.870473,0.000000,0.000000
SX3216370C,16.862695,114.297018,16.862695,114.297018,0.000000,0.000000
SX2785527A,88.704192,-70.682358,88.704192,-70.682358,0.000000,0.000000
SX2766729A,88.283269,-70.697469,88.283269,-70.697469,0.000000,0.000000
SX3197641A,83.671279,-77.401618,83.671279,-77.401618,0.000000,0.000000
SX2973161A,83.059058,-77.156830,83.059058,-77.156830,0.000000,0.000000
SX2673306C,13.759604,112.042420,13.759604,112.042420,0.000000,0.000000
SX2785515C,13.761782,112.021531,13.761782,112.021531,0.000000,0.000000
SX2729429A,82.884526,-77.162970,82.884526,-77.162970,0.000000,0.000000
SX2841633A,82.880064,-77.162080,82.880064,-77.162080,0.000000,0.000000
SX3235258A,82.965891,-76.976220,82.965891,-76.976220,0.000000,0.000000
SX3235258B,-110.732549,-29.961582,-110.732549,-29.961582,0.000000,0.000000
SX3235258C,17.286334,113.002774,17.286334,113.002774,0.000000,0.000000
SX2729414A,82.127200,-76.713598,82.127200,-76.713598,0.000000,0.000000
SX2729414B,-111.010330,-30.016123,-111.010330,-30.016123,0.000000,0.000000
SX2729414C,17.134613,112.469102,17.134613,112.469102,0.000000,0.000000
SX2973167B,-111.229595,-30.058161,-111.229595,-30.058161,0.000000,0.000000
SX3189189B,-111.203050,-30.058167,-111.203050,-30.058167,0.000000,0.000000
SX3189188C,16.892031,111.530099,16.892031,111.530099,0.000000,0.000000
SX2935560C,17.145388,112.404216,17.145388,112.404216,0.000000,0.000000
SX2916610B,-110.931691,-30.024135,-110.931691,-30.024135,0.000000,0.000000
SX3216368C,17.145178,112.401770,17.145178,112.401770,0.000000,0.000000
SX3207907A,81.397790,-76.039852,81.397790,-76.039852,0.000000,0.000000
SX3207907B,-109.642144,-29.836083,-109.642144,-29.836083,0.000000,0.000000
SX3207907C,16.890406,111.517525,16.890406,111.517525,0.000000,0.000000
SX2973166C,17.065382,112.092318,17.065382,112.092318,0.000000,0.000000
SX2710532C,17.177103,112.488567,17.177103,112.488567,0.000000,0.000000
SX2860504A,82.087367,-76.483387,82.087367,-76.483387,0.000000,0.000000
SX3085403A,81.648816,-76.461634,81.648816,-76.461634,0.000000,0.000000
SX2954355A,82.127043,-76.491091,82.127043,-76.491091,0.000000,0.000000
SX3122827A,81.744481,-76.496712,81.744481,-76.496712,0.000000,0.000000
SX3195751A,82.349013,-77.712179,82.349013,-77.712179,0.000000,0.000000
SX2766724C,17.417862,113.453072,17.417862,113.453072,0.000000,0.000000
SX3197647A,83.110415,-77.436516,83.110415,-77.436516,0.000000,0.000000
SX2821010A,82.171008,-77.487653,82.171008,-77.487653,0.000000,0.000000
SX2895461A,82.379271,-77.729101,82.379271,-77.729101,0.000000,0.000000
SX2952014A,82.825396,-77.762193,82.825396,-77.762193,0.000000,0.000000
SX3010585A,82.220949,-77.515252,82.220949,-77.515252,0.000000,0.000000
SX3120502A,82.817707,-77.757973,82.817707,-77.757973,0.000000,0.000000
SX3101789A,81.430845,-76.943169,81.430845,-76.943169,0.000000,0.000000
SX3178982A,81.374720,-76.912301,81.374720,-76.912301,0.000000,0.000000
SX2841623A,81.785102,-76.923773,81.785102,-76.923773,0.000000,0.000000
SX3010563A,81.786256,-76.924180,81.786256,-76.924180,0.000000,0.000000
SX2766727B,-103.726250,-37.562196,-103.726250,-37.562196,0.000000,0.000000
SX3029507B,-103.463553,-37.502269,-103.463553,-37.502269,0.000000,0.000000
SX3197643B,-103.468618,-37.506389,-103.468618,-37.506389,0.000000,0.000000
SX3122823B,-103.494310,-37.524088,-103.494310,-37.524088,0.000000,0.000000
SX2766726B,-103.883917,-37.670588,-103.883917,-37.670588,0.000000,0.000000
SX2785526B,-103.881973,-37.669238,-103.881973,-37.669238,0.000000,0.000000
SX2973162B,-104.054802,-37.786081,-104.054802,-37.786081,0.000000,0.000000
SX3010570A,87.789962,-69.798989,87.789962,-69.798989,0.000000,0.000000
SX2991919A,87.728871,-69.770057,87.728871,-69.770057,0.000000,0.000000
SX3122824A,87.655187,-69.736725,87.655187,-69.736725,0.000000,0.000000
SX2860489A,87.655251,-69.736754,87.655251,-69.736754,0.000000,0.000000
SX3104131A,87.198393,-69.738427,87.198393,-69.738427,0.000000,0.000000
SX3048210A,86.959868,-69.508189,86.959868,-69.508189,0.000000,0.000000
SX2897778A,87.388523,-69.970944,87.388523,-69.970944,0.000000,0.000000
SX3104132A,87.530302,-69.680101,87.530302,-69.680101,0.000000,0.000000
SX3085402A,86.876848,-69.470403,86.876848,-69.470403,0.000000,0.000000
SX2804252A,87.075900,-69.682988,87.075900,-69.682988,0.000000,0.000000
SX3048214A,87.071228,-69.680906,87.071228,-69.680906,0.000000,0.000000
SX3235275B,-104.005924,-37.877374,-104.005924,-37.877374,0.000000,0.000000
SX2897779C,16.682454,113.797445,16.682454,113.797445,0.000000,0.000000
SX2804261C,16.754903,114.051303,16.754903,114.051303,0.000000,0.000000
SX3178980C,16.755224,114.048418,16.755224,114.048418,0.000000,0.000000
SX2973164A,87.386846,-69.970196,87.386846,-69.970196,0.000000,0.000000
SX2748132A,81.176353,-75.972715,81.176353,-75.972715,0.000000,0.000000
SX3254205C,16.741667,113.659653,16.741667,113.659653,0.000000,0.000000
SX3010569A,87.893716,-70.359874,87.893716,-70.359874,0.000000,0.000000
SX2673321A,88.086314,-70.567826,88.086314,-70.567826,0.000000,0.000000
SX2954354A,88.088579,-70.568853,88.088579,-70.568853,0.000000,0.000000
SX2710519A,88.333024,-70.824609,88.333024,-70.824609,0.000000,0.000000
SX3066819A,88.078811,-70.564503,88.078811,-70.564503,0.000000,0.000000
SX3029499A,88.327801,-70.822289,88.327801,-70.822289,0.000000,0.000000
SX2897772A,88.498297,-70.548414,88.498297,-70.548414,0.000000,0.000000
SX3122826A,88.642998,-70.986737,88.642998,-70.986737,0.000000,0.000000
SX2691953A,88.901920,-70.843505,88.901920,-70.843505,0.000000,0.000000
SX2860491A,88.811088,-71.175500,88.811088,-71.175500,0.000000,0.000000
SX2860491B,-105.408170,-38.915086,-105.408170,-38.915086,0.000000,0.000000
SX2991922A,89.153984,-71.041415,89.153984,-71.041415,0.000000,0.000000
SX2991923A,88.792545,-71.103719,88.792545,-71.103719,0.000000,0.000000
SX3085400C,15.783750,113.733461,15.783750,113.733461,0.000000,0.000000
SX3141399C,15.694702,113.412614,15.694702,113.412614,0.000000,0.000000
SX2954351C,15.851154,114.011161,15.851154,114.011161,0.000000,0.000000
SX3235266C,15.773674,113.819084,15.773674,113.819084,0.000000,0.000000
SX2841626C,15.874181,114.249559,15.874181,114.249559,0.000000,0.000000
SX2954350C,15.839131,114.116146,15.839131,114.116146,0.000000,0.000000
SX3178977C,15.832452,114.172145,15.832452,114.172145,0.000000,0.000000
SX3160105C,15.832874,114.168610,15.832874,114.168610,0.000000,0.000000
SX2691945C,15.751824,114.004400,15.751824,114.004400,0.000000,0.000000
SX3010567C,15.821697,114.262276,15.821697,114.262276,0.000000,0.000000
SX2841625C,15.876369,114.231296,15.876369,114.231296,0.000000,0.000000
SX2897776C,15.781766,113.744797,15.781766,113.744797,0.000000,0.000000
SX3254215C,15.852572,114.002226,15.852572,114.002226,0.000000,0.000000
SX3122819C,15.694652,113.416739,15.694652,113.416739,0.000000,0.000000
SX2748133C,15.851851,114.003908,15.851851,114.003908,0.000000,0.000000
SX3085399C,15.852131,114.001447,15.852131,114.001447,0.000000,0.000000
SX2879074A,81.659238,-76.237649,81.659238,-76.237649,0.000000,0.000000
SX3122820A,81.230997,-76.219621,81.230997,-76.219621,0.000000,0.000000
SX2710517A,81.689515,-76.252850,81.689515,-76.252850,0.000000,0.000000
SX3197639A,81.315494,-76.263651,81.315494,-76.263651,0.000000,0.000000
SX3160106A,81.619364,-76.428757,81.619364,-76.428757,0.000000,0.000000
SX3008248A,80.552151,-76.314388,80.552151,-76.314388,0.000000,0.000000
SX3235247A,81.688678,-76.941424,81.688678,-76.941424,0.000000,0.000000
SX2673312A,81.269324,-76.924079,81.269324,-76.924079,0.000000,0.000000
SX2691944A,81.275005,-76.927197,81.275005,-76.927197,0.000000,0.000000
SX2710516A,81.283440,-76.931903,81.283440,-76.931903,0.000000,0.000000
SX2804256B,-110.620724,-27.977612,-110.620724,-27.977612,0.000000,0.000000
SX2954347B,-110.256187,-27.931443,-110.256187,-27.931443,0.000000,0.000000
SX3178975B,-107.634363,-27.537895,-107.634363,-27.537895,0.000000,0.000000
SX3160100B,-107.456619,-27.328859,-107.456619,-27.328859,0.000000,0.000000
SX3085390B,-107.455452,-27.327943,-107.455452,-27.327943,0.000000,0.000000
SX2748152B,-110.420582,-27.934325,-110.420582,-27.934325,0.000000,0.000000
SX2729434B,-110.341999,-27.907399,-110.341999,-27.907399,0.000000,0.000000
SX2916608C,17.964028,113.535215,17.964028,113.535215,0.000000,0.000000
SX2673313B,-110.023041,-27.862840,-110.023041,-27.862840,0.000000,0.000000
SX2804257B,-110.248555,-27.887645,-110.248555,-27.887645,0.000000,0.000000
SX2860485B,-110.244842,-27.884738,-110.244842,-27.884738,0.000000,0.000000
SX2860506B,-110.235372,-27.877322,-110.235372,-27.877322,0.000000,0.000000
SX3122815B,-110.239571,-27.892681,-110.239571,-27.892681,0.000000,0.000000
SX3254213B,-109.979231,-27.864729,-109.979231,-27.864729,0.000000,0.000000
SX2785543B,-109.956587,-27.854649,-109.956587,-27.854649,0.000000,0.000000
SX3235248C,17.928174,113.099358,17.928174,113.099358,0.000000,0.000000
SX2764412A,80.451771,-76.465516,80.451771,-76.465516,0.000000,0.000000
SX3027132A,80.615491,-76.339865,80.615491,-76.339865,0.000000,0.000000
SX3101787A,80.189357,-76.320465,80.189357,-76.320465,0.000000,0.000000
SX3101788A,80.192829,-76.322382,80.192829,-76.322382,0.000000,0.000000
SX2876812A,80.584586,-76.326045,80.584586,-76.326045,0.000000,0.000000
SX2970811A,80.139284,-76.299560,80.139284,-76.299560,0.000000,0.000000
SX2916607C,17.856833,112.798538,17.856833,112.798538,0.000000,0.000000
SX3010564C,17.936361,113.016370,17.936361,113.016370,0.000000,0.000000
SX2710515C,17.773939,112.349958,17.773939,112.349958,0.000000,0.000000
SX2766746C,17.888470,112.554325,17.888470,112.554325,0.000000,0.000000
SX2691941C,17.906293,112.486412,17.906293,112.486412,0.000000,0.000000
SX3235241C,17.904820,112.492028,17.904820,112.492028,0.000000,0.000000
SX3104118C,17.806007,112.178128,17.806007,112.178128,0.000000,0.000000
SX2748126C,17.901764,112.503689,17.901764,112.503689,0.000000,0.000000
SX3235267C,17.907080,112.483412,17.907080,112.483412,0.000000,0.000000
SX2841645C,17.911623,112.466042,17.911623,112.466042,0.000000,0.000000
SX3066829C,17.911910,112.464949,17.911910,112.464949,0.000000,0.000000
SX3254203B,-107.235153,-27.206401,-107.235153,-27.206401,0.000000,0.000000
SX2860480B,-106.955429,-27.166255,-106.955429,-27.166255,0.000000,0.000000
SX3197624B,-107.505440,-27.241853,-107.505440,-27.241853,0.000000,0.000000
SX2822860B,-106.955990,-27.166694,-106.955990,-27.166694,0.000000,0.000000
SX3048199B,-107.236645,-27.208416,-107.236645,-27.208416,0.000000,0.000000
SX2710508B,-107.225953,-27.202458,-107.225953,-27.202458,0.000000,0.000000
SX3122810B,-107.057720,-27.223227,-107.057720,-27.223227,0.000000,0.000000
SX2897765B,-107.408560,-27.303469,-107.408560,-27.303469,0.000000,0.000000
SX2804248B,-107.593145,-27.349089,-107.593145,-27.349089,0.000000,0.000000
SX2785512B,-107.068661,-27.229773,-107.068661,-27.229773,0.000000,0.000000
SX2935553B,-107.433005,-27.430578,-107.433005,-27.430578,0.000000,0.000000
SX3048207B,-107.723223,-27.477496,-107.723223,-27.477496,0.000000,0.000000
SX2729427B,-107.794064,-27.516730,-107.794064,-27.516730,0.000000,0.000000
SX2748131B,-107.833772,-27.538728,-107.833772,-27.538728,0.000000,0.000000
SX2879066B,-107.753575,-27.494292,-107.753575,-27.494292,0.000000,0.000000
SX2973152B,-107.664583,-27.558278,-107.664583,-27.558278,0.000000,0.000000
SX2879068B,-107.807372,-27.637164,-107.807372,-27.637164,0.000000,0.000000
SX2860484B,-108.166662,-27.723066,-108.166662,-27.723066,0.000000,0.000000
SX3085397B,-107.449789,-27.439829,-107.449789,-27.439829,0.000000,0.000000
SX3066812A,84.194261,-77.088742,84.194261,-77.088742,0.000000,0.000000
SX3216344B,-107.293446,-27.635570,-107.293446,-27.635570,0.000000,0.000000
SX2860501B,-107.955694,-27.718904,-107.955694,-27.718904,0.000000,0.000000
SX3197632B,-108.162172,-27.720621,-108.162172,-27.720621,0.000000,0.000000
SX2710514B,-107.798602,-27.632426,-107.798602,-27.632426,0.000000,0.000000
SX3048203B,-107.499743,-27.468052,-107.499743,-27.468052,0.000000,0.000000
SX2860500B,-107.790356,-27.514727,-107.790356,-27.514727,0.000000,0.000000
SX3197660B,-107.258717,-27.335116,-107.258717,-27.335116,0.000000,0.000000
SX2897800B,-107.698353,-27.408360,-107.698353,-27.408360,0.000000,0.000000
SX3235246B,-107.324385,-27.257682,-107.324385,-27.257682,0.000000,0.000000
SX2710512B,-107.016918,-27.202002,-107.016918,-27.202002,0.000000,0.000000
SX2897791B,-108.378523,-31.241696,-108.378523,-31.241696,0.000000,0.000000
SX2916618B,-108.424764,-31.269038,-108.424764,-31.269038,0.000000,0.000000
SX3160113B,-108.767354,-31.329734,-108.767354,-31.329734,0.000000,0.000000
SX2804269B,-108.758158,-31.324908,-108.758158,-31.324908,0.000000,0.000000
SX2989564B,-109.011536,-31.361941,-109.011536,-31.361941,0.000000,0.000000
SX2897789B,-109.007999,-31.358983,-109.007999,-31.358983,0.000000,0.000000
SX2690941B,-106.740122,-27.049490,-106.740122,-27.049490,0.000000,0.000000
SX3234185B,-106.736059,-27.047253,-106.736059,-27.047253,0.000000,0.000000
SX3065750B,-106.731707,-27.044856,-106.731707,-27.044856,0.000000,0.000000
SX3159037B,-106.416164,-27.014217,-106.416164,-27.014217,0.000000,0.000000
SX2748124B,-106.756080,-27.058380,-106.756080,-27.058380,0.000000,0.000000
SX2710504B,-106.461207,-27.038926,-106.461207,-27.038926,0.000000,0.000000
SX2954346B,-106.941497,-27.160442,-106.941497,-27.160442,0.000000,0.000000
SX2710505B,-107.186462,-27.181425,-107.186462,-27.181425,0.000000,0.000000
SX3178974B,-107.182857,-27.179433,-107.182857,-27.179433,0.000000,0.000000
SX2691943B,-107.173891,-27.174476,-107.173891,-27.174476,0.000000,0.000000
SX2916603B,-107.367979,-27.281014,-107.367979,-27.281014,0.000000,0.000000
SX2804254A,84.158613,-77.069924,84.158613,-77.069924,0.000000,0.000000
SX2710513B,-107.309835,-27.193331,-107.309835,-27.193331,0.000000,0.000000
SX2973149B,-107.329427,-27.259721,-107.329427,-27.259721,0.000000,0.000000
SX3010562B,-107.793534,-27.515798,-107.793534,-27.515798,0.000000,0.000000
SX3254228B,-108.723890,-31.304556,-108.723890,-31.304556,0.000000,0.000000
SX2936213B,-110.451886,-37.420895,-110.451886,-37.420895,0.000000,0.000000
SX2692633C,14.193113,115.453366,14.193113,115.453366,0.000000,0.000000
SX3179646B,-103.441646,-35.618058,-103.441646,-35.618058,0.000000,0.000000
SX3104830C,13.917043,115.911702,13.917043,115.911702,0.000000,0.000000
SX3142078B,-108.759535,-42.770123,-108.759535,-42.770123,0.000000,0.000000
SX2879752B,-108.633204,-42.735663,-108.633204,-42.735663,0.000000,0.000000
SX2952003B,-103.544959,-38.221134,-103.544959,-38.221134,0.000000,0.000000
SX2990826A,83.528972,-66.525994,83.528972,-66.525994,0.000000,0.000000
SX2990826B,-103.454715,-38.171037,-103.454715,-38.171037,0.000000,0.000000
SX2990826C,13.116918,115.509445,13.116918,115.509445,0.000000,0.000000
SX3197626C,13.739876,112.953386,13.739876,112.953386,0.000000,0.000000
SX3066807C,13.774690,113.077108,13.774690,113.077108,0.000000,0.000000
SX3197627C,13.704851,112.456610,13.704851,112.456610,0.000000,0.000000
SX3216343C,13.707722,112.435281,13.707722,112.435281,0.000000,0.000000
SX3085393C,13.711669,112.405962,13.711669,112.405962,0.000000,0.000000
SX2897770C,13.711962,112.406949,13.711962,112.406949,0.000000,0.000000
SX2748128C,13.707772,112.434776,13.707772,112.434776,0.000000,0.000000
SX3085392C,13.788748,112.592743,13.788748,112.592743,0.000000,0.000000
SX3029497C,13.822717,112.725357,13.822717,112.725357,0.000000,0.000000
SX2673307C,13.807685,112.451109,13.807685,112.451109,0.000000,0.000000
SX2729406C,13.814024,112.402389,13.814024,112.402389,0.000000,0.000000
SX2897768C,13.748569,112.126529,13.748569,112.126529,0.000000,0.000000
SX2822863C,13.850014,112.519026,13.850014,112.519026,0.000000,0.000000
SX2841619C,13.677080,111.692411,13.677080,111.692411,0.000000,0.000000
SX2804282C,13.823342,112.332961,13.823342,112.332961,0.000000,0.000000
SX3104154C,13.674149,111.719615,13.674149,111.719615,0.000000,0.000000
SX2897806C,13.825908,112.313516,13.825908,112.313516,0.000000,0.000000
SX3216342B,-109.599310,-28.703777,-109.599310,-28.703777,0.000000,0.000000
SX2879063B,-109.597555,-28.702385,-109.597555,-28.702385,0.000000,0.000000
SX3048227A,83.812073,-77.551564,83.812073,-77.551564,0.000000,0.000000
SX3216367B,-109.697094,-28.785952,-109.697094,-28.785952,0.000000,0.000000
SX3010561A,84.224059,-77.564347,84.224059,-77.564347,0.000000,0.000000
SX2991939B,-109.775389,-28.853112,-109.775389,-28.853112,0.000000,0.000000
SX2673308B,-109.547449,-28.893538,-109.547449,-28.893538,0.000000,0.000000
SX3066808C,18.314226,113.137594,18.314226,113.137594,0.000000,0.000000
SX3141396C,18.313316,113.141072,18.313316,113.141072,0.000000,0.000000
SX3066810C,18.555422,112.555355,18.555422,112.555355,0.000000,0.000000
SX2897769C,18.557218,112.535835,18.557218,112.535835,0.000000,0.000000
SX2766749B,-109.254569,-28.421043,-109.254569,-28.421043,0.000000,0.000000
SX2973178B,-109.449872,-28.396442,-109.449872,-28.396442,0.000000,0.000000
SX3029518B,-109.189612,-28.363019,-109.189612,-28.363019,0.000000,0.000000
SX2935549B,-108.747977,-28.221472,-108.747977,-28.221472,0.000000,0.000000
SX3122811A,83.711672,-77.363505,83.711672,-77.363505,0.000000,0.000000
SX3254207A,84.068419,-77.252765,84.068419,-77.252765,0.000000,0.000000
SX2822877B,-108.821737,-27.872391,-108.821737,-27.872391,0.000000,0.000000
SX2841618A,83.629212,-77.227060,83.629212,-77.227060,0.000000,0.000000
SX3066805A,83.605432,-77.214440,83.605432,-77.214440,0.000000,0.000000
SX2785514A,83.593195,-77.207922,83.593195,-77.207922,0.000000,0.000000
SX3235244A,83.584072,-77.203054,83.584072,-77.203054,0.000000,0.000000
SX2785513A,83.575142,-77.198288,83.575142,-77.198288,0.000000,0.000000
SX3160101A,83.574142,-77.197754,83.574142,-77.197754,0.000000,0.000000
SX3010559A,83.990952,-77.211353,83.990952,-77.211353,0.000000,0.000000
SX3159448A,83.717051,-77.317471,83.717051,-77.317471,0.000000,0.000000
SX2973156B,-108.586093,-27.736891,-108.586093,-27.736891,0.000000,0.000000
SX3029501B,-108.402081,-27.635330,-108.402081,-27.635330,0.000000,0.000000
SX2691949B,-108.102783,-27.582719,-108.102783,-27.582719,0.000000,0.000000
SX3104127B,-108.103559,-27.583148,-108.103559,-27.583148,0.000000,0.000000
SX2897774B,-108.339453,-27.600896,-108.339453,-27.600896,0.000000,0.000000
SX2879061B,-108.373071,-27.564033,-108.373071,-27.564033,0.000000,0.000000
SX3066813B,-108.172719,-27.509043,-108.172719,-27.509043,0.000000,0.000000
SX2991910B,-108.077795,-27.456761,-108.077795,-27.456761,0.000000,0.000000
SX2879072B,-108.029102,-27.429945,-108.029102,-27.429945,0.000000,0.000000
SX3197635B,-107.791908,-27.300907,-107.791908,-27.300907,0.000000,0.000000
SX2804258B,-107.526462,-27.268114,-107.526462,-27.268114,0.000000,0.000000
SX3235250B,-107.884913,-27.296628,-107.884913,-27.296628,0.000000,0.000000
SX2954349B,-107.274777,-27.130747,-107.274777,-27.130747,0.000000,0.000000
SX2766722B,-107.186141,-27.082109,-107.186141,-27.082109,0.000000,0.000000
SX2879071B,-107.155037,-27.057927,-107.155037,-27.057927,0.000000,0.000000
SX3029504B,-107.110191,-27.023065,-107.110191,-27.023065,0.000000,0.000000
SX2691948B,-107.317763,-27.009837,-107.317763,-27.009837,0.000000,0.000000
SX2710546B,-106.990614,-26.930150,-106.990614,-26.930150,0.000000,0.000000
SX2785547B,-107.020285,-26.953198,-107.020285,-26.953198,0.000000,0.000000
SX3254214B,-106.961316,-26.907395,-106.961316,-26.907395,0.000000,0.000000
SX3160104B,-106.908673,-26.866515,-106.908673,-26.866515,0.000000,0.000000
SX3216349B,-107.147443,-26.877018,-107.147443,-26.877018,0.000000,0.000000
SX2879077B,-107.128983,-26.862627,-107.128983,-26.862627,0.000000,0.000000
SX2991916B,-106.838066,-26.811692,-106.838066,-26.811692,0.000000,0.000000
SX3235245C,18.185097,113.273417,18.185097,113.273417,0.000000,0.000000
SX2766716C,18.184706,113.274905,18.184706,113.274905,0.000000,0.000000
SX3254209C,18.014502,112.689159,18.014502,112.689159,0.000000,0.000000
SX3254204A,84.299034,-77.729324,84.299034,-77.729324,0.000000,0.000000
SX2841627A,81.193139,-75.981987,81.193139,-75.981987,0.000000,0.000000
SX3216348A,81.219783,-75.996756,81.219783,-75.996756,0.000000,0.000000
SX2691947A,81.028123,-76.262514,81.028123,-76.262514,0.000000,0.000000
SX2841648A,81.243445,-76.009713,81.243445,-76.009713,0.000000,0.000000
SX2973157A,80.895261,-76.035276,80.895261,-76.035276,0.000000,0.000000
SX3178978A,81.587589,-76.197316,81.587589,-76.197316,0.000000,0.000000
SX2879075A,81.524259,-76.162789,81.524259,-76.162789,0.000000,0.000000
SX3082992A,81.235643,-76.005448,81.235643,-76.005448,0.000000,0.000000
SX2728247A,83.798438,-66.800271,83.798438,-66.800271,0.000000,0.000000
SX2728247B,-103.459533,-38.173231,-103.459533,-38.173231,0.000000,0.000000
SX2728247C,13.211457,115.903835,13.211457,115.903835,0.000000,0.000000
SX3197633A,84.182233,-77.082387,84.182233,-77.082387,0.000000,0.000000
SX2879069A,84.414703,-77.354904,84.414703,-77.354904,0.000000,0.000000
SX3178971A,84.563598,-77.076863,84.563598,-77.076863,0.000000,0.000000
SX2973154A,84.604730,-77.097807,84.604730,-77.097807,0.000000,0.000000
SX2973155A,84.674356,-77.277884,84.674356,-77.277884,0.000000,0.000000
SX3122814C,17.872695,115.381925,17.872695,115.381925,0.000000,0.000000
SX2991908A,84.715529,-77.463452,84.715529,-77.463452,0.000000,0.000000
SX2860481C,17.903999,115.463353,17.903999,115.463353,0.000000,0.000000
SX2841621C,17.787818,115.047866,17.787818,115.047866,0.000000,0.000000
SX2804255B,-109.670634,-28.675889,-109.670634,-28.675889,0.000000,0.000000
SX2954345C,17.841969,115.192121,17.841969,115.192121,0.000000,0.000000
SX2935555A,84.837539,-77.846257,84.837539,-77.846257,0.000000,0.000000
SX2897773A,84.648105,-78.101433,84.648105,-78.101433,0.000000,0.000000
SX2748127A,84.827686,-77.841023,84.827686,-77.841023,0.000000,0.000000
SX3197631A,84.828899,-77.841667,84.828899,-77.841667,0.000000,0.000000
SX2935554A,84.665570,-78.137229,84.665570,-78.137229,0.000000,0.000000
SX2822866B,-110.560288,-29.155000,-110.560288,-29.155000,0.000000,0.000000
SX3178972C,17.566878,114.178904,17.566878,114.178904,0.000000,0.000000
SX3104123C,17.821350,115.050814,17.821350,115.050814,0.000000,0.000000
SX2973153A,84.971915,-78.121631,84.971915,-78.121631,0.000000,0.000000
SX3216123A,85.044632,-78.242669,85.044632,-78.242669,0.000000,0.000000
SX2972930A,84.693914,-78.338540,84.693914,-78.338540,0.000000,0.000000
SX3029506B,-112.191881,-29.828015,-112.191881,-29.828015,0.000000,0.000000
SX2785521C,17.646604,114.294229,17.646604,114.294229,0.000000,0.000000
SX3197661C,17.810376,114.801480,17.810376,114.801480,0.000000,0.000000
SX3216345B,-111.267215,-29.368881,-111.267215,-29.368881,0.000000,0.000000
SX2879070B,-111.870884,-29.509898,-111.870884,-29.509898,0.000000,0.000000
SX2973160B,-112.061264,-29.807603,-112.061264,-29.807603,0.000000,0.000000
SX3066815C,17.714191,114.881367,17.714191,114.881367,0.000000,0.000000
SX2897777C,17.598981,114.588842,17.598981,114.588842,0.000000,0.000000
SX2991914C,17.558966,113.987778,17.558966,113.987778,0.000000,0.000000
SX2822869A,83.886283,-77.726240,83.886283,-77.726240,0.000000,0.000000
SX2729410C,17.423062,113.484165,17.423062,113.484165,0.000000,0.000000
SX3197640C,17.654342,114.455105,17.654342,114.455105,0.000000,0.000000
SX2954353A,85.341334,-78.758387,85.341334,-78.758387,0.000000,0.000000
SX3160109B,-111.121986,-29.874967,-111.121986,-29.874967,0.000000,0.000000
SX3104136B,-111.296562,-29.843052,-111.296562,-29.843052,0.000000,0.000000
SX2822872B,-110.923325,-29.710923,-110.923325,-29.710923,0.000000,0.000000
SX3122821B,-110.500112,-29.399689,-110.500112,-29.399689,0.000000,0.000000
SX2860482A,83.899811,-77.723452,83.899811,-77.723452,0.000000,0.000000
SX3010560B,-110.208626,-29.195551,-110.208626,-29.195551,0.000000,0.000000
SX3104119A,83.880996,-77.673593,83.880996,-77.673593,0.000000,0.000000
SX2785517C,18.339370,113.185931,18.339370,113.185931,0.000000,0.000000
SX3066809C,18.229119,112.749226,18.229119,112.749226,0.000000,0.000000
SX2954344C,18.232461,112.712216,18.232461,112.712216,0.000000,0.000000
SX2897767C,18.232946,112.707111,18.232946,112.707111,0.000000,0.000000
SX3254208C,18.233566,112.700590,18.233566,112.700590,0.000000,0.000000
SX2748125C,18.235207,112.680714,18.235207,112.680714,0.000000,0.000000
SX2673303C,18.311572,112.939600,18.311572,112.939600,0.000000,0.000000
SX3104117C,18.150514,112.313343,18.150514,112.313343,0.000000,0.000000
SX3010568A,86.267251,-79.060028,86.267251,-79.060028,0.000000,0.000000
SX3029505C,17.476303,115.562206,17.476303,115.562206,0.000000,0.000000
SX2673318C,17.477258,115.558682,17.477258,115.558682,0.000000,0.000000
SX3178979C,17.284234,115.556718,17.284234,115.556718,0.000000,0.000000
SX3104129A,86.621034,-79.012474,86.621034,-79.012474,0.000000,0.000000
SX3141401A,87.130189,-79.334407,87.130189,-79.334407,0.000000,0.000000
SX2841632B,-109.018725,-30.260136,-109.018725,-30.260136,0.000000,0.000000
SX2748157A,82.306939,-74.423208,82.306939,-74.423208,0.000000,0.000000
SX2785537A,82.929922,-74.663086,82.929922,-74.663086,0.000000,0.000000
SX2691967B,-110.053689,-31.191167,-110.053689,-31.191167,0.000000,0.000000
SX2916620A,84.292514,-75.279760,84.292514,-75.279760,0.000000,0.000000
SX2916620B,-110.533035,-31.835105,-110.533035,-31.835105,0.000000,0.000000
SX2916620C,16.755725,116.209780,16.755725,116.209780,0.000000,0.000000
SX2766738C,16.461769,115.908946,16.461769,115.908946,0.000000,0.000000
SX3066814B,-110.562764,-32.632287,-110.562764,-32.632287,0.000000,0.000000
SX2820535B,-110.104611,-32.272077,-110.104611,-32.272077,0.000000,0.000000
SX2785534B,-110.036608,-32.079934,-110.036608,-32.079934,0.000000,0.000000
SX2691965B,-110.544884,-32.159053,-110.544884,-32.159053,0.000000,0.000000
SX2748144A,84.915208,-74.745423,84.915208,-74.745423,0.000000,0.000000
SX2897792A,84.008680,-74.941933,84.008680,-74.941933,0.000000,0.000000
SX2785538A,83.568757,-74.925303,83.568757,-74.925303,0.000000,0.000000
SX2897793A,83.793089,-75.192095,83.793089,-75.192095,0.000000,0.000000
SX3254231A,83.788554,-75.189763,83.788554,-75.189763,0.000000,0.000000
SX3254230A,83.858293,-75.273866,83.858293,-75.273866,0.000000,0.000000
SX2673331B,-108.894322,-31.684855,-108.894322,-31.684855,0.000000,0.000000
SX2935567B,-109.768837,-31.813711,-109.768837,-31.813711,0.000000,0.000000
SX2804272B,-109.808664,-31.836710,-109.808664,-31.836710,0.000000,0.000000
SX3160115B,-108.869971,-31.673162,-108.869971,-31.673162,0.000000,0.000000
SX3254227B,-110.022664,-31.908408,-110.022664,-31.908408,0.000000,0.000000
SX2860499B,-108.884121,-31.678901,-108.884121,-31.678901,0.000000,0.000000
SX3254229B,-109.503706,-31.768238,-109.503706,-31.768238,0.000000,0.000000
SX2822873B,-109.878663,-31.823674,-109.878663,-31.823674,0.000000,0.000000
SX3178988B,-109.881482,-31.825347,-109.881482,-31.825347,0.000000,0.000000
SX2785536B,-109.748728,-31.801614,-109.748728,-31.801614,0.000000,0.000000
SX3066826B,-109.163284,-31.706489,-109.163284,-31.706489,0.000000,0.000000
SX3197653B,-108.689278,-31.283330,-108.689278,-31.283330,0.000000,0.000000
SX2785535B,-108.366406,-31.234145,-108.366406,-31.234145,0.000000,0.000000
SX2916619B,-108.938684,-31.432051,-108.938684,-31.432051,0.000000,0.000000
SX2916617B,-108.947944,-31.437325,-108.947944,-31.437325,0.000000,0.000000
SX3122835B,-109.314081,-31.541636,-109.314081,-31.541636,0.000000,0.000000
SX2691966B,-108.694948,-31.569260,-108.694948,-31.569260,0.000000,0.000000
SX3104145B,-109.397726,-31.591892,-109.397726,-31.591892,0.000000,0.000000
SX2973171B,-109.202908,-31.588769,-109.202908,-31.588769,0.000000,0.000000
SX2804270B,-109.399935,-31.593209,-109.399935,-31.593209,0.000000,0.000000
SX3235273B,-109.195684,-31.584645,-109.195684,-31.584645,0.000000,0.000000
SX2729423C,16.476780,116.368418,16.476780,116.368418,0.000000,0.000000
SX2729424A,85.316137,-74.720138,85.316137,-74.720138,0.000000,0.000000
SX3160114A,85.318461,-74.721266,85.318461,-74.721266,0.000000,0.000000
SX3104144A,85.136232,-74.986450,85.136232,-74.986450,0.000000,0.000000
SX3197652A,84.893852,-74.714837,84.893852,-74.714837,0.000000,0.000000
SX3141394B,-110.760384,-37.481505,-110.760384,-37.481505,0.000000,0.000000
SX2804277C,14.939461,116.091159,14.939461,116.091159,0.000000,0.000000
SX3197625C,15.004857,116.348321,15.004857,116.348321,0.000000,0.000000
SX2785511A,87.790978,-74.729498,87.790978,-74.729498,0.000000,0.000000
SX2973148A,86.761197,-74.789242,86.761197,-74.789242,0.000000,0.000000
SX3160098A,87.000756,-74.802024,87.000756,-74.802024,0.000000,0.000000
SX2916602A,86.765933,-74.791545,86.765933,-74.791545,0.000000,0.000000
SX3231255C,15.879035,115.986904,15.879035,115.986904,0.000000,0.000000
SX3118855C,15.744567,115.669157,15.744567,115.669157,0.000000,0.000000
SX3085410B,-109.789179,-31.824271,-109.789179,-31.824271,0.000000,0.000000
SX2992556C,6.141480,116.800921,6.141480,116.800921,0.000000,0.000000
SX3198356C,13.623799,113.817388,13.623799,113.817388,0.000000,0.000000
SX3048968C,13.478407,113.206328,13.478407,113.206328,0.000000,0.000000
SX2767414C,13.484881,114.830409,13.484881,114.830409,0.000000,0.000000
SX3045895C,13.455128,114.316290,13.455128,114.316290,0.000000,0.000000
SX2692664C,13.520041,114.573684,13.520041,114.573684,0.000000,0.000000
SX2991901B,-109.008585,-27.290395,-109.008585,-27.290395,0.000000,0.000000
SX2673322B,-110.223141,-27.784383,-110.223141,-27.784383,0.000000,0.000000
SX2766730B,-110.094443,-27.768292,-110.094443,-27.768292,0.000000,0.000000
SX2689691A,81.513263,-76.987194,81.513263,-76.987194,0.000000,0.000000
SX2914323B,-110.234860,-27.790980,-110.234860,-27.790980,0.000000,0.000000
SX3048222C,17.746884,113.442514,17.746884,113.442514,0.000000,0.000000
SX3122837C,17.745770,113.453810,17.745770,113.453810,0.000000,0.000000
SX2991933C,17.650608,113.140695,17.650608,113.140695,0.000000,0.000000
SX2710525C,17.814990,113.779866,17.814990,113.779866,0.000000,0.000000
SX2673323C,17.814196,113.787909,17.814196,113.787909,0.000000,0.000000
SX2710542B,-109.788442,-27.720044,-109.788442,-27.720044,0.000000,0.000000
SX2766742B,-109.895331,-27.667680,-109.895331,-27.667680,0.000000,0.000000
SX3254234B,-109.466656,-27.548423,-109.466656,-27.548423,0.000000,0.000000
SX3104114B,-109.387380,-27.505718,-109.387380,-27.505718,0.000000,0.000000
SX2822857B,-109.595897,-27.508715,-109.595897,-27.508715,0.000000,0.000000
SX2691939B,-109.329369,-27.474466,-109.329369,-27.474466,0.000000,0.000000
SX2860478B,-109.585516,-27.503317,-109.585516,-27.503317,0.000000,0.000000
SX2822858B,-109.322561,-27.470794,-109.322561,-27.470794,0.000000,0.000000
SX3254206B,-109.225865,-27.414486,-109.225865,-27.414486,0.000000,0.000000
SX2766715B,-109.505007,-27.460411,-109.505007,-27.460411,0.000000,0.000000
SX2860479B,-109.536040,-27.412371,-109.536040,-27.412371,0.000000,0.000000
SX3178969B,-109.403334,-27.394668,-109.403334,-27.394668,0.000000,0.000000
SX2729401B,-109.401372,-27.393592,-109.401372,-27.393592,0.000000,0.000000
SX2804245B,-109.086356,-27.332919,-109.086356,-27.332919,0.000000,0.000000
SX3216338B,-109.007175,-27.289621,-109.007175,-27.289621,0.000000,0.000000
SX2691938B,-109.024283,-27.298977,-109.024283,-27.298977,0.000000,0.000000
SX2673326B,-109.296384,-27.335989,-109.296384,-27.335989,0.000000,0.000000
SX3251806B,-109.326491,-27.352507,-109.326491,-27.352507,0.000000,0.000000
SX3160108B,-108.729473,-27.277754,-108.729473,-27.277754,0.000000,0.000000
SX2841624B,-109.303203,-27.339719,-109.303203,-27.339719,0.000000,0.000000
SX2729409B,-109.044369,-27.309950,-109.044369,-27.309950,0.000000,0.000000
SX3029510B,-109.312827,-27.344999,-109.312827,-27.344999,0.000000,0.000000
SX2991927B,-109.055680,-27.316137,-109.055680,-27.316137,0.000000,0.000000
SX2954338B,-109.313878,-27.467300,-109.313878,-27.467300,0.000000,0.000000
SX3197634B,-110.279947,-28.068922,-110.279947,-28.068922,0.000000,0.000000
SX2729408B,-110.586217,-28.099680,-110.586217,-28.099680,0.000000,0.000000
SX2991909A,82.227400,-77.632795,82.227400,-77.632795,0.000000,0.000000
SX3085398B,-110.565045,-28.094124,-110.565045,-28.094124,0.000000,0.000000
SX2673314C,17.958476,114.356588,17.958476,114.356588,0.000000,0.000000
SX3122817C,17.920567,114.230483,17.920567,114.230483,0.000000,0.000000
SX3160102B,-110.354035,-27.994094,-110.354035,-27.994094,0.000000,0.000000
SX2822871B,-111.101354,-28.677321,-111.101354,-28.677321,0.000000,0.000000
SX2876813A,82.688202,-77.875109,82.688202,-77.875109,0.000000,0.000000
SX2952013A,82.803340,-78.087243,82.803340,-78.087243,0.000000,0.000000
SX2916598A,83.125581,-78.207266,83.125581,-78.207266,0.000000,0.000000
SX3048212A,83.125971,-78.207482,83.125971,-78.207482,0.000000,0.000000
SX2691973A,83.303568,-77.943052,83.303568,-77.943052,0.000000,0.000000
SX2954357A,82.694399,-77.694464,82.694399,-77.694464,0.000000,0.000000
SX2841639A,83.028761,-78.003204,83.028761,-78.003204,0.000000,0.000000
SX2804262A,83.482469,-78.040785,83.482469,-78.040785,0.000000,0.000000
SX2973165A,83.100735,-78.042398,83.100735,-78.042398,0.000000,0.000000
SX2785529C,17.688452,114.292934,17.688452,114.292934,0.000000,0.000000
SX3197646B,-111.248807,-28.863022,-111.248807,-28.863022,0.000000,0.000000
SX3141389A,83.148744,-77.858464,83.148744,-77.858464,0.000000,0.000000
SX3197618A,83.147881,-77.858096,83.147881,-77.858096,0.000000,0.000000
SX2691936A,83.158448,-77.863853,83.158448,-77.863853,0.000000,0.000000
SX3216336A,82.751131,-77.851829,82.751131,-77.851829,0.000000,0.000000
SX3216337A,83.174484,-77.872795,83.174484,-77.872795,0.000000,0.000000
SX2841615A,83.183282,-77.877389,83.183282,-77.877389,0.000000,0.000000
SX2954348A,82.784136,-77.869789,82.784136,-77.869789,0.000000,0.000000
SX3235249A,83.033066,-78.156938,83.033066,-78.156938,0.000000,0.000000
SX2916599A,82.837211,-77.898741,82.837211,-77.898741,0.000000,0.000000
SX3122816B,-110.510068,-28.060541,-110.510068,-28.060541,0.000000,0.000000
SX3160103C,17.919888,113.890146,17.919888,113.890146,0.000000,0.000000
SX2935556B,-110.238163,-27.922297,-110.238163,-27.922297,0.000000,0.000000
SX3104124B,-110.499655,-27.956867,-110.499655,-27.956867,0.000000,0.000000
SX2970804C,6.502466,114.953386,6.502466,114.953386,0.000000,0.000000
SX3176661C,6.574954,115.351289,6.574954,115.351289,0.000000,0.000000
SX3048937C,6.547869,115.225988,6.547869,115.225988,0.000000,0.000000
SX2804957C,6.571406,115.360692,6.571406,115.360692,0.000000,0.000000
SX2767343C,6.435661,114.640757,6.435661,114.640757,0.000000,0.000000
SX3179608C,14.322461,115.695968,14.322461,115.695968,0.000000,0.000000
SX3086002C,14.402427,116.031667,14.402427,116.031667,0.000000,0.000000
SX2842330C,14.401134,116.041421,14.401134,116.041421,0.000000,0.000000
SX3235945C,14.400204,116.048438,14.400204,116.048438,0.000000,0.000000
SX2955006C,14.397682,116.069641,14.397682,116.069641,0.000000,0.000000
SX2692600C,14.398312,116.067538,14.398312,116.067538,0.000000,0.000000
SX3235946A,81.028817,-66.994532,81.028817,-66.994532,0.000000,0.000000
SX3011229A,81.415729,-66.955229,81.415729,-66.955229,0.000000,0.000000
SX2767342A,80.943763,-66.954960,80.943763,-66.954960,0.000000,0.000000
SX2748780A,80.929774,-66.948450,80.929774,-66.948450,0.000000,0.000000
SX2823544A,80.912966,-66.940629,80.912966,-66.940629,0.000000,0.000000
SX3195321A,81.356382,-66.927501,81.356382,-66.927501,0.000000,0.000000
SX2823545A,80.874711,-66.922766,80.874711,-66.922766,0.000000,0.000000
SX3101782A,80.657939,-66.690227,80.657939,-66.690227,0.000000,0.000000
SX2936214A,82.104639,-66.981705,82.104639,-66.981705,0.000000,0.000000
SX3142049C,13.797197,115.938456,13.797197,115.938456,0.000000,0.000000
SX2804956A,82.102976,-66.980779,82.102976,-66.980779,0.000000,0.000000
SX2730106C,13.598011,115.576589,13.598011,115.576589,0.000000,0.000000
SX2936212A,82.618360,-66.938052,82.618360,-66.938052,0.000000,0.000000
SX3029495B,-102.517560,-36.734600,-102.517560,-36.734600,0.000000,0.000000
SX2804247B,-102.249272,-36.674016,-102.249272,-36.674016,0.000000,0.000000
SX3104115B,-102.660237,-36.771686,-102.660237,-36.771686,0.000000,0.000000
SX2954339B,-102.263900,-36.684286,-102.263900,-36.684286,0.000000,0.000000
SX3048200B,-102.652662,-36.766837,-102.652662,-36.766837,0.000000,0.000000
SX3216339B,-102.240578,-36.668433,-102.240578,-36.668433,0.000000,0.000000
SX3048201B,-102.240564,-36.668457,-102.240564,-36.668457,0.000000,0.000000
SX3141390B,-102.365025,-36.752243,-102.365025,-36.752243,0.000000,0.000000
SX2710537B,-102.327166,-36.726664,-102.327166,-36.726664,0.000000,0.000000
SX2673300B,-102.371330,-36.756495,-102.371330,-36.756495,0.000000,0.000000
SX3085388B,-102.760054,-36.839387,-102.760054,-36.839387,0.000000,0.000000
SX2822859B,-102.374237,-36.758160,-102.374237,-36.758160,0.000000,0.000000
SX2991902B,-102.425466,-36.793511,-102.425466,-36.793511,0.000000,0.000000
SX2991918B,-102.481297,-36.831688,-102.481297,-36.831688,0.000000,0.000000
SX2897764B,-102.477667,-36.829204,-102.477667,-36.829204,0.000000,0.000000
SX2860488B,-102.518621,-36.857135,-102.518621,-36.857135,0.000000,0.000000
SX2804260B,-102.792330,-37.044326,-102.792330,-37.044326,0.000000,0.000000
SX2973163B,-103.263242,-37.185021,-103.263242,-37.185021,0.000000,0.000000
SX3104130B,-103.134603,-37.278185,-103.134603,-37.278185,0.000000,0.000000
SX2879079B,-103.459302,-37.379370,-103.459302,-37.379370,0.000000,0.000000
SX2991917B,-103.696149,-37.482292,-103.696149,-37.482292,0.000000,0.000000
SX2841636B,-103.660828,-37.517387,-103.660828,-37.517387,0.000000,0.000000
SX3085389B,-102.296113,-36.705657,-102.296113,-36.705657,0.000000,0.000000
SX2673319C,17.143134,112.145131,17.143134,112.145131,0.000000,0.000000
SX2841631C,17.068666,111.913680,17.068666,111.913680,0.000000,0.000000
SX3216350A,81.606980,-76.459563,81.606980,-76.459563,0.000000,0.000000
SX3141402C,17.069064,111.907343,17.069064,111.907343,0.000000,0.000000
SX3197642C,17.142726,112.198162,17.142726,112.198162,0.000000,0.000000
SX2691952A,82.035795,-76.477973,82.035795,-76.477973,0.000000,0.000000
SX2879081A,82.060281,-76.476030,82.060281,-76.476030,0.000000,0.000000
SX2785530A,81.890082,-76.743851,81.890082,-76.743851,0.000000,0.000000
SX2766723A,81.647474,-76.461170,81.647474,-76.461170,0.000000,0.000000
SX3122822A,81.645226,-76.459949,81.645226,-76.459949,0.000000,0.000000
SX2766747A,81.247556,-76.840441,81.247556,-76.840441,0.000000,0.000000
SX2858163A,81.691699,-76.870686,81.691699,-76.870686,0.000000,0.000000
SX3216346A,81.712085,-76.882071,81.712085,-76.882071,0.000000,0.000000
SX3029500A,81.286396,-76.864558,81.286396,-76.864558,0.000000,0.000000
SX3156034A,81.541058,-77.157368,81.541058,-77.157368,0.000000,0.000000
SX3066821A,81.308155,-76.876546,81.308155,-76.876546,0.000000,0.000000
SX2748140A,81.303083,-76.874380,81.303083,-76.874380,0.000000,0.000000
SX3141412A,81.723770,-76.891605,81.723770,-76.891605,0.000000,0.000000
SX2991915B,-106.816431,-26.794894,-106.816431,-26.794894,0.000000,0.000000
SX2673320B,-106.812920,-26.792168,-106.812920,-26.792168,0.000000,0.000000
SX2841634B,-106.479151,-26.752616,-106.479151,-26.752616,0.000000,0.000000
SX2766720A,81.999526,-77.466034,81.999526,-77.466034,0.000000,0.000000
SX3235254C,17.699484,114.462876,17.699484,114.462876,0.000000,0.000000
SX2935566C,16.409206,116.107805,16.409206,116.107805,0.000000,0.000000
SX3141393C,15.754231,115.983990,15.754231,115.983990,0.000000,0.000000
SX3030204A,96.706234,-64.709962,96.706234,-64.709962,0.000000,0.000000
SX3160868B,-104.050750,-44.138423,-104.050750,-44.138423,0.000000,0.000000
SX2785524C,15.803699,114.420572,15.803699,114.420572,0.000000,0.000000
SX3235268C,17.909781,112.473114,17.909781,112.473114,0.000000,0.000000
SX3122825A,87.051283,-69.549867,87.051283,-69.549867,0.000000,0.000000
SX2991920A,87.683732,-69.750051,87.683732,-69.750051,0.000000,0.000000
SX2973146B,-109.005485,-27.288310,-109.005485,-27.288310,0.000000,0.000000
SX2935568B,-107.428806,-27.315422,-107.428806,-27.315422,0.000000,0.000000
SX2814529A,81.359729,-76.019850,81.359729,-76.019850,0.000000,0.000000
SX2814529B,-110.290866,-29.935383,-110.290866,-29.935383,0.000000,0.000000
SX2814529C,16.884282,111.471432,16.884282,111.471432,0.000000,0.000000
SX3122818C,17.847376,113.888862,17.847376,113.888862,0.000000,0.000000
SX3048209B,-106.810986,-26.790667,-106.810986,-26.790667,0.000000,0.000000
SX2841628A,86.726238,-66.749609,86.726238,-66.749609,0.000000,0.000000
SX2673316A,86.992349,-67.011108,86.992349,-67.011108,0.000000,0.000000
SX2748143A,84.891930,-74.714228,84.891930,-74.714228,0.000000,0.000000
SX2860477A,83.147341,-77.857972,83.147341,-77.857972,0.000000,0.000000
SX3066811B,-107.644059,-27.545497,-107.644059,-27.545497,0.000000,0.000000
SX2954352C,15.702495,114.451372,15.702495,114.451372,0.000000,0.000000
SX3160864B,-104.404911,-44.344209,-104.404911,-44.344209,0.000000,0.000000
SX3085401A,85.512752,-78.653652,85.512752,-78.653652,0.000000,0.000000
SX2766744B,-109.967566,-27.863216,-109.967566,-27.863216,0.000000,0.000000
SX2804259A,87.385906,-69.783395,87.385906,-69.783395,0.000000,0.000000
SX2860486C,15.850900,114.013300,15.850900,114.013300,0.000000,0.000000
SX2785522B,-109.967955,-27.839094,-109.967955,-27.839094,0.000000,0.000000
SX2897766C,13.640849,112.943924,13.640849,112.943924,0.000000,0.000000
SX3048889C,6.436855,115.250516,6.436855,115.250516,0.000000,0.000000
SX3048890C,6.417985,115.300908,6.417985,115.300908,0.000000,0.000000
SX2991921C,16.737401,113.679602,16.737401,113.679602,0.000000,0.000000
SX3011293A,95.607322,-64.503311,95.607322,-64.503311,0.000000,0.000000
SX3011293B,-104.214800,-50.325076,-104.214800,-50.325076,0.000000,0.000000
SX3011293C,7.581497,116.678111,7.581497,116.678111,0.000000,0.000000
...